   94
scf done: -2576.981105
 H   -14.460527     1.836871     0.697781
 H   -14.920997    -2.459975     0.557346
 H   -12.444754    -2.722800     0.557296
 H    -8.167787    -2.262389     0.638291
 H   -11.998792     1.588913     0.700465
 H   -10.279184    -1.871115     0.605807
 H    -3.552884    -1.645597     0.642200
 H    -9.897451     1.196988     0.638206
 H    -5.718541    -2.500812     0.640141
 H    -1.442668    -2.035966     0.649240
 H    -5.282606     1.814095     0.637207
 H    -7.731832     2.052135     0.634033
 H     3.171917    -1.418686     0.646128
 H    -3.172449     1.423491     0.633295
 H     1.006315    -2.274126     0.650069
 H     5.281811    -1.809554     0.652333
 H     1.442237     2.040843     0.629337
 H    -1.006758     2.279006     0.628240
 H     9.896692    -1.193421     0.647211
 H     3.552658     1.650319     0.627321
 H     7.730980    -2.048076     0.651405
 H    11.997857    -1.585658     0.708619
 H     8.167761     2.266241     0.618454
 H     5.718558     2.505139     0.618212
 C    17.168782    -0.029333    -1.153206
 H    10.279232     1.874291     0.594016
 H    14.459516    -1.834279     0.708976
 C   -17.168082     0.022168    -1.156964
 H    14.921241     2.461674     0.546962
 H    12.445075     2.725156     0.543811
 C   -14.014532     0.837886     0.650191
 C   -14.863787    -0.292271     0.597583
 C   -14.276115    -1.575199     0.572183
 C   -12.884356    -1.717766     0.577814
 C   -12.021971    -0.592629     0.615289
 C   -12.625333     0.691365     0.655702
 C   -10.575958    -0.813114     0.618414
 C    -9.599476     0.139083     0.631264
 C    -8.156113    -0.078986     0.634128
 C    -7.546107    -1.360493     0.636475
 C    -6.160178    -1.496490     0.638065
 C    -5.293551    -0.369572     0.637794
 C    -5.904063     0.912081     0.636529
 C    -7.290138     1.047810     0.634904
 C    -3.851446    -0.587914     0.639269
 C    -2.873721     0.365827     0.636911
 C    -1.431826     0.147776     0.638180
 C    -0.821139    -1.133992     0.644480
 C     0.564614    -1.269819     0.645051
 C     1.431384    -0.142902     0.639414
 C     0.820702     1.138870     0.633431
 C    -0.565058     1.274696     0.632877
 C     2.873267    -0.361012     0.640101
 C     3.851087     0.592613     0.633825
 C     5.293161     0.374038     0.634295
 C     5.903434    -0.907693     0.644025
 C     7.289479    -1.043696     0.643649
 C     8.155671     0.082885     0.633372
 C     7.545910     1.364482     0.624584
 C     6.160003     1.500752     0.624900
 C     9.598984    -0.135519     0.632607
 C    10.575717     0.816316     0.613632
 C    12.021674     0.595427     0.612535
 C    12.624665    -0.688504     0.659890
 C    14.013829    -0.835424     0.656068
 C    14.863425     0.294221     0.598271
 C    14.276113     1.577157     0.565883
 C    12.884389     1.720122     0.569794
 S    16.646950     0.103253     0.667855
 S   -16.647408    -0.101448     0.665060
 C   -18.697507     0.185511    -1.077762
 C   -16.795297    -1.265808    -1.906777
 C   -16.522012     1.250688    -1.815346
 C    16.796238     1.254801    -1.909691
 C    16.523339    -1.261264    -1.805817
 C    18.698188    -0.191998    -1.072250
 H   -19.171219    -0.682480    -0.586131
 H   -19.112460     0.267871    -2.099795
 H   -18.977724     1.097241    -0.521224
 H   -17.272212    -2.148180    -1.446215
 H   -15.702973    -1.425036    -1.914593
 H   -17.133567    -1.198864    -2.959254
 H   -16.801746     2.179373    -1.288625
 H   -16.859219     1.333860    -2.867001
 H   -15.420941     1.171873    -1.821138
 H    16.861052    -1.349554    -2.856893
 H    15.422248    -1.182772    -1.812497
 H    16.803071    -2.187259    -1.274381
 H    17.135278     1.182681    -2.961577
 H    17.272625     2.139567    -1.453195
 H    15.703886     1.413753    -1.919092
 H    19.113763    -0.279562    -2.093598
 H    18.978235    -1.100800    -0.510856
 H    19.171453     0.678600    -0.584818
