 94
scf done: -2576.183803
 H 	-14.4255 	-0.712431 	1.82265
 H 	-14.8864 	-0.564609 	-2.46438
 H 	-12.4144 	-0.551362 	-2.72696
 H 	-8.14849 	-0.601671 	-2.26595
 H 	-11.9681 	-0.701569 	1.57475
 H 	-10.2533 	-0.588281 	-1.87693
 H 	-3.54253 	-0.605468 	-1.6497
 H 	-9.87426 	-0.642949 	1.18498
 H 	-5.70356 	-0.596455 	-2.50369
 H 	-1.43894 	-0.606446 	-2.03709
 H 	-5.26874 	-0.640527 	1.80133
 H 	-7.71362 	-0.644783 	2.03869
 H 	3.16647 	-0.61359 	-1.41913
 H 	-3.16589 	-0.630316 	1.41355
 H 	1.0058		-0.605161 	-2.27392
 H 	5.26958 	-0.62121 	-1.80669
 H 	1.43941 	-0.633057 	2.03146
 H 	-1.00532 	-0.63405 	2.26829
 H 	9.87507 	-0.632402 	-1.18941
 H 	3.54279 	-0.625838 	1.64424
 H 	7.71453 	-0.622821 	-2.0436
 H 	11.969 		-0.692871 	-1.57895
 H 	8.14853 	-0.629184 	2.26134
 H 	5.70356 	-0.626413 	2.49864
 C 	17.1162 	1.13781 	-0.006128
 H 	10.2533 	-0.605498 	1.87297
 H 	14.4265 	-0.70013 	-1.82628
 C 	-17.1169 	1.13565 	0.01476
 H 	14.8863 	-0.580508 	2.46175
 H 	12.4141 	-0.570957 	2.72378
 C 	-13.9802 	-0.662102 	0.826017
 C 	-14.828 	-0.612465 	-0.301697
 C 	-14.2421 	-0.579781 	-1.58207
 C 	-12.8533 	-0.577293 	-1.72451
 C 	-11.9926 	-0.613421 	-0.601841
 C 	-12.594 	-0.659533 	0.679581
 C 	-10.55 	-0.609218 	-0.821514
 C 	-9.5763 	-0.625993 	0.129648
 C 	-8.13629 	-0.622486 	-0.087463
 C 	-7.52784 	-0.609088 	-1.3663
 C 	-6.14479 	-0.606514 	-1.50196
 C 	-5.28019 	-0.617305 	-0.377389
 C 	-5.88916 	-0.631115 	0.901586
 C 	-7.27233 	-0.63366 	1.03698
 C 	-3.84138 	-0.614508 	-0.594597
 C 	-2.8668 	-0.621916 	0.358483
 C 	-1.42817 	-0.620095 	0.141811
 C 	-0.818683 	-0.611938 	-1.13718
 C 	0.564221 	-0.611294 	-1.2723
 C 	1.42865 	-0.618628 	-0.147439
 C 	0.819161 	-0.626725 	1.13155
 C 	-0.563739 	-0.627409 	1.26667
 C 	2.86729 	-0.618032 	-0.364059
 C 	3.84178 	-0.622315 	0.589143
 C 	5.28062 	-0.622721 	0.372156
 C 	5.88983 	-0.622005 	-0.906773
 C 	7.27304 	-0.623088 	-1.04191
 C 	8.13677 	-0.624663 	0.082762
 C 	7.52806 	-0.625969 	1.36155
 C 	6.145 		-0.624895 	1.49695
 C 	9.57684 	-0.62561 	-0.134041
 C 	10.5503 	-0.617168 	0.817492
 C 	11.993 		-0.618932 	0.598181
 C 	12.5947 	-0.656076 	-0.683368
 C 	13.981 		-0.656652 	-0.829458
 C 	14.8284 	-0.613908 	0.298783
 C 	14.2422 	-0.590259 	1.5792
 C 	12.8534 	-0.589818 	1.72129
 S 	16.6071 	-0.680951 	0.108067
 S 	-16.6066 	-0.681999 	-0.110955
 C 	-18.6428 	1.06543 	0.178233
 C 	-16.7416 	1.88368 	-1.26907
 C 	-16.4685 	1.78794 	1.24066
 C 	16.7405 	1.87731 	1.28257
 C 	16.4671 	1.79754 	-1.22767
 C 	18.642 		1.06969 	-0.170349
 H 	-19.1182 	0.578662 	-0.688429
 H 	-19.0504 	2.08752 	0.261868
 H 	-18.9247 	0.510479 	1.0874
 H 	-17.2187 	1.42642 	-2.15004
 H 	-15.6514 	1.88774 	-1.42723
 H 	-17.0756 	2.9347 		-1.20088
 H 	-16.7485 	1.26133 	2.16646
 H 	-16.8015 	2.83806 	1.32557
 H 	-15.3699 	1.78998 	1.16056
 H 	16.7995 	2.84834 	-1.306
 H 	15.3684 	1.79858 	-1.14721
 H 	16.747 		1.27695 	-2.15688
 H 	17.0737 	2.92903 	1.22102
 H 	17.2183 	1.41483 	2.16046
 H 	15.6504 	1.87942 	1.44103
 H 	19.049 		2.09258 	-0.247313
 H 	18.9241 	0.520922 	-1.0832
 H 	19.1179 	0.577534 	0.692996
